
**** 03/19/25 11:24:56 **** PSpice 23.1.0 (30 January 2024) *** ID# 0 ********

 ** Profile: "SCHEMATIC1-bias"  [ c:\sebas\02-facultad\pspice\02 - voltímetro\002_dos_etapas_real\002_dos_etapas_real-pspicefiles\sch


 ****     CIRCUIT DESCRIPTION


******************************************************************************




** Creating circuit file "bias.cir" 
** WARNING: THIS AUTOMATICALLY GENERATED FILE MAY BE OVERWRITTEN BY SUBSEQUENT SIMULATIONS

*Libraries: 
* Profile Libraries :
* Local Libraries :
* From [PSPICE NETLIST] section of C:\cds_spb_home\cdssetup\OrCAD_PSpiceTIPSpice_Install\23.1.0\PSpice.ini file:
.lib "nom_pspti.lib" 
.lib "nom.lib" 
.inc "C:\Users\sebas\OneDrive - alum.uca.es\04 - Proyectos\01 - [GOAL] TFG\Documentación\include.txt" 

*Analysis directives: 

**** INCLUDING include.txt ****
+ .options PTRANABSTOL=10u PTRANVNTOL=100u


**** RESUMING bias.cir ****
.TRAN  0 100m 0 0.1m 
.OPTIONS ADVCONV
.OPTIONS FILEMODELSEARCH
.PROBE64 V(alias(*)) I(alias(*)) W(alias(*)) D(alias(*)) NOISE(alias(*)) 
.INC "..\SCHEMATIC1.net" 



**** INCLUDING SCHEMATIC1.net ****
* source 002_DOS_ETAPAS_REAL
V_V2         N17025 0  AC 0.1
+SIN 2.5 0.1 50 0 0 0
R_R5         N17025 N17035  1k TC=0,0 
R_R3         0 N16919  1k TC=0,0 
R_R2         N16991 N16955  24k TC=0,0 
R_R6         N17125 N17035  1k TC=0,0 
R_R4         N16919 N16933  1k TC=0,0 
R_R1         0 N16991  1k TC=0,0 
V_V1         0 N17125 2.4
R_R7         0 N17035  10Meg TC=0,0 
X_U3         N17035 N16919 VCC VEE N16933 OPAx210
X_U4         N16933 N16991 VCC VEE N16955 OPAx210
V_V3         VCC 0 5Vdc
V_V4         0 VEE 5Vdc

**** RESUMING bias.cir ****
.END

**** 03/19/25 11:24:56 **** PSpice 23.1.0 (30 January 2024) *** ID# 0 ********

 ** Profile: "SCHEMATIC1-bias"  [ c:\sebas\02-facultad\pspice\02 - voltímetro\002_dos_etapas_real\002_dos_etapas_real-pspicefiles\sch


 ****     Diode MODEL PARAMETERS


******************************************************************************




               X_U3.X_U39.DVNF X_U3.X_U40.DVNF X_U3.X_U43.DVN  X_U4.X_U39.DVNF 
          IS  100.000000E-18  100.000000E-18  100.000000E-18  100.000000E-18 
          KF    3.162278E-12    3.162278E-12    3.162278E-12    3.162278E-12 


               X_U4.X_U40.DVNF X_U4.X_U43.DVN  
          IS  100.000000E-18  100.000000E-18 
          KF    3.162278E-12    3.162278E-12 


**** 03/19/25 11:24:56 **** PSpice 23.1.0 (30 January 2024) *** ID# 0 ********

 ** Profile: "SCHEMATIC1-bias"  [ c:\sebas\02-facultad\pspice\02 - voltímetro\002_dos_etapas_real\002_dos_etapas_real-pspicefiles\sch


 ****     Resistor MODEL PARAMETERS


******************************************************************************




               X_U3.R_NOISELESS 
  T_Measured   27            
   T_Current -273.15         
           R    1            


               X_U4.R_NOISELESS 
  T_Measured   27            
   T_Current -273.15         
           R    1            


**** 03/19/25 11:24:56 **** PSpice 23.1.0 (30 January 2024) *** ID# 0 ********

 ** Profile: "SCHEMATIC1-bias"  [ c:\sebas\02-facultad\pspice\02 - voltímetro\002_dos_etapas_real\002_dos_etapas_real-pspicefiles\sch


 ****     Voltage Controlled Switch MODEL PARAMETERS


******************************************************************************




               X_U3.X_S1._S1   X_U3.X_S2._S2   
         RON     .01             .01         
        ROFF    1.000000E+12    1.000000E+12 
         VON     .01             .01         
        VOFF    0               0            


               X_U3.X_U20.ESD_SW 
         RON   50            
        ROFF    1.000000E+12 
         VON     .7          
        VOFF     .65         


               X_U3.X_U21.ESD_SW 
         RON   50            
        ROFF    1.000000E+12 
         VON     .5          
        VOFF     .45         


               X_U3.X_U25.OL_SW 
         RON    1.000000E-03 
        ROFF    1.000000E+09 
         VON     .9          
        VOFF     .8          


               X_U3.X_U5.ESD_SW                X_U4.X_S1._S1   X_U4.X_S2._S2   
         RON   50                                .01             .01         
        ROFF    1.000000E+12                    1.000000E+12    1.000000E+12 
         VON     .5                              .01             .01         
        VOFF     .45                            0               0            


               X_U4.X_U20.ESD_SW 
         RON   50            
        ROFF    1.000000E+12 
         VON     .7          
        VOFF     .65         


               X_U4.X_U21.ESD_SW 
         RON   50            
        ROFF    1.000000E+12 
         VON     .5          
        VOFF     .45         


               X_U4.X_U25.OL_SW 
         RON    1.000000E-03 
        ROFF    1.000000E+09 
         VON     .9          
        VOFF     .8          


               X_U4.X_U5.ESD_SW 
         RON   50            
        ROFF    1.000000E+12 
         VON     .5          
        VOFF     .45         


**** 03/19/25 11:24:56 **** PSpice 23.1.0 (30 January 2024) *** ID# 0 ********

 ** Profile: "SCHEMATIC1-bias"  [ c:\sebas\02-facultad\pspice\02 - voltímetro\002_dos_etapas_real\002_dos_etapas_real-pspicefiles\sch


 ****     INITIAL TRANSIENT SOLUTION       TEMPERATURE =   27.000 DEG C


******************************************************************************



 NODE   VOLTAGE     NODE   VOLTAGE     NODE   VOLTAGE     NODE   VOLTAGE


(  VCC)    5.0000  (  VEE)   -5.0000  (N16919)     .0500 (N16933)     .1000     

(N16955)    2.5002 (N16991)     .1000 (N17025)    2.5000 (N17035)     .0500     

(N17125)   -2.4000 (X_U3.MID)-227.7E-21                  (X_U3.V11)-3.256E-09   

(X_U3.V12)-3.257E-09                  (X_U4.MID)-455.4E-21                      

(X_U4.V11)-3.249E-09                  (X_U4.V12)-3.264E-09                      

(X_U3.ESDN)     .0500                 (X_U3.ESDP)     .0500                     

(X_U3.VCLP)     .2451                 (X_U4.ESDN)     .1000                     

(X_U4.ESDP)     .1000                 (X_U4.VCLP)    3.0759                     

(X_U3.CLAMP)     .2445                (X_U3.VCC_B)    5.0000                    

(X_U3.VEE_B)   -5.0000                (X_U3.VIMON)     .0500                    

(X_U4.CLAMP)    3.0685                (X_U4.VCC_B)    5.0000                    

(X_U4.VEE_B)   -5.0000                (X_U4.VIMON)     .1000                    

(X_U3.VOUT_S)     .1000               (X_U3.VSENSE)     .2445                   

(X_U4.VOUT_S)    2.5002               (X_U4.VSENSE)    3.0685                   

(X_U3.VCC_CLP)    4.9660              (X_U3.VEE_CLP)   -4.9670                  

(X_U3.X_U39.3)    0.0000              (X_U3.X_U39.4)    0.0000                  

(X_U3.X_U39.5)    0.0000              (X_U3.X_U39.6)    0.0000                  

(X_U3.X_U39.7)     .8338              (X_U3.X_U39.8)     .8338                  

(X_U3.X_U40.3)    0.0000              (X_U3.X_U40.4)    0.0000                  

(X_U3.X_U40.5)    0.0000              (X_U3.X_U40.6)    0.0000                  

(X_U3.X_U40.7)     .8338              (X_U3.X_U40.8)     .8338                  

(X_U3.X_U43.3)    0.0000              (X_U3.X_U43.4)    0.0000                  

(X_U3.X_U43.5)    0.0000              (X_U3.X_U43.6)    0.0000                  

(X_U3.X_U43.7)     .8338              (X_U3.X_U43.8)     .8338                  

(X_U4.VCC_CLP)    4.9650              (X_U4.VEE_CLP)   -4.9670                  

(X_U4.X_U39.3)    0.0000              (X_U4.X_U39.4)    0.0000                  

(X_U4.X_U39.5)    0.0000              (X_U4.X_U39.6)    0.0000                  

(X_U4.X_U39.7)     .8338              (X_U4.X_U39.8)     .8338                  

(X_U4.X_U40.3)    0.0000              (X_U4.X_U40.4)    0.0000                  

(X_U4.X_U40.5)    0.0000              (X_U4.X_U40.6)    0.0000                  

(X_U4.X_U40.7)     .8338              (X_U4.X_U40.8)     .8338                  

(X_U4.X_U43.3)    0.0000              (X_U4.X_U43.4)    0.0000                  

(X_U4.X_U43.5)    0.0000              (X_U4.X_U43.6)    0.0000                  

(X_U4.X_U43.7)     .8338              (X_U4.X_U43.8)     .8338                  

(X_U3.CL_CLAMP)     .2451             (X_U3.N5296587) 250.5E-09                 

(X_U3.N5296597)    4.1750             (X_U3.N5296613) 35.71E-06                 

(X_U3.N5296623) 4.999E-09             (X_U3.N5296637)   -1.1950                 

(X_U3.N5296643)-251.0E-09             (X_U3.N5297649)     .0500                 

(X_U3.N5297653)     .0500             (X_U3.N5297689)     .0500                 

(X_U3.N5297697)     .0500             (X_U3.N5297811)     .1000                 

(X_U3.N5297995)     .2451             (X_U3.N5298043)     .0500                 

(X_U3.N5298247)   12.8370             (X_U3.N5298259)     .0114                 

(X_U3.N5298335)    3.5000             (X_U3.N5298539)   12.8520                 

(X_U3.N5298547)     .1285             (X_U3.N5298565)     .1000                 

(X_U3.N5298577)     .0500             (X_U3.N5298735) 5.582E-06                 

(X_U3.N5298821)     .2445             (X_U3.N5298855)     .2445                 

(X_U3.N5298889)     .2445             (X_U3.N5298911)     .2451                 

(X_U3.N5298977)   12.8990             (X_U3.N5298999)    9.2468                 

(X_U3.N5299017)   12.8530             (X_U3.N5299035)   12.8530                 

(X_U3.N5299057)   12.8530             (X_U3.N5299111)   12.8500                 

(X_U3.N5299325)     .0500             (X_U3.N5299343)     .0500                 

(X_U3.N5300195)   12.8530             (X_U3.N5300247)     .0500                 

(X_U3.N5300373)   12.8530             (X_U3.N5300937)   -3.5000                 

(X_U3.N5301533)   55.5000             (X_U3.N5301537)     .2445                 

(X_U3.N5301543)  205.0000             (X_U3.N5301563)-227.7E-21                 

(X_U3.N5301567)-227.7E-21             (X_U3.N5301577)-227.7E-21                 

(X_U3.N5301581)-227.7E-21             (X_U3.N5301591)-227.7E-21                 

(X_U3.N5301595)-227.7E-21             (X_U3.N5302227)-227.7E-21                 

(X_U3.N5302261)-227.7E-21             (X_U3.N5302295)-227.7E-21                 

(X_U3.N5302333)-227.7E-21             (X_U3.N5302369)-227.7E-21                 

(X_U3.N5302405)-227.7E-21             (X_U3.N5302475)-227.7E-21                 

(X_U3.N5302495)  -55.5000             (X_U3.N5302499) -205.0000                 

(X_U3.N5302951)    5.0000             (X_U3.N5302991)   -5.0000                 

(X_U3.N5303741)    4.9660             (X_U3.N5303747)   -3.0049                 

(X_U3.N5303803)    3.4951             (X_U3.N5303823)    4.9660                 

(X_U3.N5304181)-3.256E-09             (X_U3.N5304195)-227.7E-21                 

(X_U3.N5304303)   -3.0049             (X_U3.N5304315)   -3.0049                 

(X_U3.N5304383)    3.4951             (X_U3.N5304405)    3.4951                 

(X_U3.N5304435)-3.257E-09             (X_U3.N5304593)   -4.9670                 

(X_U3.N5304615)   -4.9670             (X_U3.N5331892) 4.998E-09                 

(X_U3.N5331902) 4.385E-12             (X_U3.N5336063) 4.998E-09                 

(X_U3.N5354255)     .2445             (X_U3.N5356232) 563.4E-06                 

(X_U4.CL_CLAMP)    3.0759             (X_U4.N5296587) 250.5E-09                 

(X_U4.N5296597)    4.1750             (X_U4.N5296613) 71.42E-06                 

(X_U4.N5296623) 9.998E-09             (X_U4.N5296637)   -1.1950                 

(X_U4.N5296643)-251.0E-09             (X_U4.N5297649)     .1000                 

(X_U4.N5297653)     .1000             (X_U4.N5297689)     .1000                 

(X_U4.N5297697)     .1000             (X_U4.N5297811)    2.5002                 

(X_U4.N5297995)    3.0759             (X_U4.N5298043)     .1000                 

(X_U4.N5298247)   50.9510             (X_U4.N5298259)     .0453                 

(X_U4.N5298335)    3.5000             (X_U4.N5298539)   51.0080                 

(X_U4.N5298547)     .5100             (X_U4.N5298565)    2.5002                 

(X_U4.N5298577)     .1000             (X_U4.N5298735) 70.06E-06                 

(X_U4.N5298821)    3.0685             (X_U4.N5298855)    3.0685                 

(X_U4.N5298889)    3.0685             (X_U4.N5298911)    3.0759                 

(X_U4.N5298977)   51.1950             (X_U4.N5298999)   36.7000                 

(X_U4.N5299017)   51.0140             (X_U4.N5299035)   51.0140                 

(X_U4.N5299057)   51.0140             (X_U4.N5299111)   51.0030                 

(X_U4.N5299325)     .1000             (X_U4.N5299343)     .1000                 

(X_U4.N5300195)   51.0140             (X_U4.N5300247)     .1000                 

(X_U4.N5300373)   51.0140             (X_U4.N5300937)   -3.5000                 

(X_U4.N5301533)   55.5000             (X_U4.N5301537)    3.0685                 

(X_U4.N5301543)  205.0000             (X_U4.N5301563)-455.4E-21                 

(X_U4.N5301567)-455.4E-21             (X_U4.N5301577)-455.4E-21                 

(X_U4.N5301581)-455.4E-21             (X_U4.N5301591)-455.4E-21                 

(X_U4.N5301595)-455.4E-21             (X_U4.N5302227)-455.4E-21                 

(X_U4.N5302261)-455.4E-21             (X_U4.N5302295)-455.4E-21                 

(X_U4.N5302333)-455.4E-21             (X_U4.N5302369)-455.4E-21                 

(X_U4.N5302405)-455.4E-21             (X_U4.N5302475)-455.4E-21                 

(X_U4.N5302495)  -55.5000             (X_U4.N5302499) -205.0000                 

(X_U4.N5302951)    5.0000             (X_U4.N5302991)   -5.0000                 

(X_U4.N5303741)    4.9650             (X_U4.N5303747)    -.1741                 

(X_U4.N5303803)    6.3259             (X_U4.N5303823)    4.9650                 

(X_U4.N5304181)-3.249E-09             (X_U4.N5304195)-455.4E-21                 

(X_U4.N5304303)    -.1741             (X_U4.N5304315)    -.1741                 

(X_U4.N5304383)    6.3259             (X_U4.N5304405)    6.3259                 

(X_U4.N5304435)-3.264E-09             (X_U4.N5304593)   -4.9670                 

(X_U4.N5304615)   -4.9670             (X_U4.N5331892) 9.997E-09                 

(X_U4.N5331902) 8.770E-12             (X_U4.N5336063) 9.998E-09                 

(X_U4.N5354255)    3.0682             (X_U4.N5356232)     .0071                 

(X_U3.N52998091)   12.8530            (X_U4.N52998091)   51.0140                

(X_U3.CLAW_CLAMP)     .2451           (X_U4.CLAW_CLAMP)    3.0759               

(X_U3.SW_OL_OPAx210)-227.7E-21        (X_U4.SW_OL_OPAx210)-455.4E-21        




    VOLTAGE SOURCE CURRENTS
    NAME         CURRENT

    V_V2        -2.450E-03
    V_V1        -2.450E-03
    V_V3        -4.550E-03
    V_V4        -4.400E-03
    X_U3.V_VCM_MAX  -3.500E-12
    X_U3.V_VCM_MIN   3.500E-12
    X_U3.V_V_GRN   2.050E-10
    X_U3.V_V_GRP  -2.050E-10
    X_U3.V_V_ISCN   5.550E-11
    X_U3.V_V_ISCP  -5.550E-11
    X_U3.V_V_ORN   0.000E+00
    X_U3.V_V_ORP   0.000E+00
    X_U4.V_VCM_MAX  -3.500E-12
    X_U4.V_VCM_MIN   3.500E-12
    X_U4.V_V_GRN   2.050E-10
    X_U4.V_V_GRP  -2.050E-10
    X_U4.V_V_ISCN   5.550E-11
    X_U4.V_V_ISCP  -5.550E-11
    X_U4.V_V_ORN   0.000E+00
    X_U4.V_V_ORP   0.000E+00
    X_U3.X_H1.VH_H1   5.000E-05
    X_U3.X_H2.VH_H2  -3.257E-09
    X_U3.X_H3.VH_H3   3.256E-09
    X_U4.X_H1.VH_H1   1.000E-04
    X_U4.X_H2.VH_H2  -3.264E-09
    X_U4.X_H3.VH_H3   3.249E-09

    TOTAL POWER DISSIPATION   5.68E-02  WATTS

Reducing minimum delta to make the circuit converge.
Reducing minimum delta to make the circuit converge.
Reducing minimum delta to make the circuit converge.
Reducing minimum delta to make the circuit converge.
Reducing minimum delta to make the circuit converge.
Reducing minimum delta to make the circuit converge.

ERROR(ORPSIM-15138): Convergence problem in Transient Analysis at Time =  4.797E-03.
         Time step =  271.1E-21, minimum allowable step size =  1.000E-18

  These voltages failed to converge:

    V(X_U3.N5298259)          =    19.18mV  \    22.67mV
    V(X_U3.N5298547)          =   180.41mV  \   253.94mV
    V(X_U3.N5298539)          =     25.60V  \     25.67V
    V(X_U3.N5298977)          =     21.67V  \     25.62V
    V(X_U3.N5298999)          =     14.37V  \     18.32V
    V(X_U3.N5300195)          =     25.37V  \     25.67V
    V(X_U3.N5299035)          =     25.37V  \     25.67V
    V(X_U3.N5299057)          =     25.60V  \     25.68V
    V(X_U3.N5299017)          =     19.98V  \     25.47V
    V(X_U3.N5299111)          =     18.04V  \     25.39V
    V(X_U3.N5298043)          =    67.42mV  \    98.71mV

  These supply currents failed to converge:

    I(X_U3.E_E1)              =   -4.037mA  \  -147.11uA
    I(X_U3.E_E3)              =    1.267nA  \   -1.862nA
    I(X_U3.E_E4)              =  -483.55pA  \    40.06pA
    I(X_U4.E_E1)              =    52.85mA  \  -497.37uA
    I(X_U4.E_E3)              =   -5.984uA  \    67.80nA
    I(X_U4.E_E4)              =   128.42nA  \    11.34nA
    I(X_U3.X_U43.E3)          =    1.404nA  \   305.78pA
    I(X_U4.X_U43.E3)          =         0A  \   261.93pA
    I(X_U3.X_H1.VH_H1)        =    67.42uA  \    98.71uA
    I(X_U3.X_H1.H_H1)         =   324.79uA  \    11.93uA
    I(X_U4.X_H1.H_H1)         =  -249.35nA  \    2.824nA



  Last node voltages tried were:

 NODE   VOLTAGE     NODE   VOLTAGE     NODE   VOLTAGE     NODE   VOLTAGE


(  VCC)    5.0000  (  VEE)   -5.0000  (N16919)     .0999 (N16933)     .1998     

(N16955)    4.9670 (N16991)     .1987 (N17025)    2.5998 (N17035)     .0999     

(N17125)   -2.4000 (X_U3.MID) 4.018E-18                  (X_U3.V11)-3.256E-09   

(X_U3.V12)-3.257E-09                  (X_U4.MID) 3.785E-18                      

(X_U4.V11)-6.526E-09                  (X_U4.V12)     .0050                      

(X_U3.ESDN)     .0999                 (X_U3.ESDP)     .0999                     

(X_U3.VCLP)     .3554                 (X_U4.ESDN)     .1987                     

(X_U4.ESDP)     .1998                 (X_U4.VCLP)    5.5840                     

(X_U3.CLAMP)     .3545                (X_U3.VCC_B)    5.0000                    

(X_U3.VEE_B)   -5.0000                (X_U3.VIMON)     .0999                    

(X_U4.CLAMP)    8.8465                (X_U4.VCC_B)    5.0000                    

(X_U4.VEE_B)   -5.0000                (X_U4.VIMON)     .1987                    

(X_U3.VOUT_S)     .1998               (X_U3.VSENSE)     .3545                   

(X_U4.VOUT_S)    4.9664               (X_U4.VSENSE)    8.8465                   

(X_U3.VCC_CLP)    4.9650              (X_U3.VEE_CLP)   -4.9670                  

(X_U3.X_U39.3)    0.0000              (X_U3.X_U39.4)    0.0000                  

(X_U3.X_U39.5)    0.0000              (X_U3.X_U39.6)    0.0000                  

(X_U3.X_U39.7)     .8338              (X_U3.X_U39.8)     .8338                  

(X_U3.X_U40.3)    0.0000              (X_U3.X_U40.4)    0.0000                  

(X_U3.X_U40.5)    0.0000              (X_U3.X_U40.6)    0.0000                  

(X_U3.X_U40.7)     .8338              (X_U3.X_U40.8)     .8338                  

(X_U3.X_U43.3)    0.0000              (X_U3.X_U43.4)    0.0000                  

(X_U3.X_U43.5)    0.0000              (X_U3.X_U43.6)    0.0000                  

(X_U3.X_U43.7)     .8338              (X_U3.X_U43.8)     .8338                  

(X_U4.VCC_CLP)    4.9631              (X_U4.VEE_CLP)   -4.9670                  

(X_U4.X_U39.3)    0.0000              (X_U4.X_U39.4)    0.0000                  

(X_U4.X_U39.5)    0.0000              (X_U4.X_U39.6)    0.0000                  

(X_U4.X_U39.7)     .8338              (X_U4.X_U39.8)     .8338                  

(X_U4.X_U40.3)    0.0000              (X_U4.X_U40.4)    0.0000                  

(X_U4.X_U40.5)    0.0000              (X_U4.X_U40.6)    0.0000                  

(X_U4.X_U40.7)     .8338              (X_U4.X_U40.8)     .8338                  

(X_U4.X_U43.3)    0.0000              (X_U4.X_U43.4)    0.0000                  

(X_U4.X_U43.5)    0.0000              (X_U4.X_U43.6)    0.0000                  

(X_U4.X_U43.7)     .8338              (X_U4.X_U43.8)     .8338                  

(X_U3.CL_CLAMP)     .3554             (X_U3.N5296587) 344.7E-09                 

(X_U3.N5296597)    4.1750             (X_U3.N5296613) 71.35E-06                 

(X_U3.N5296623) 10.02E-09             (X_U3.N5296637)   -1.1950                 

(X_U3.N5296643)-60.54E-09             (X_U3.N5297649)     .0999                 

(X_U3.N5297653)     .0999             (X_U3.N5297689)     .0999                 

(X_U3.N5297697)     .0999             (X_U3.N5297811)     .1998                 

(X_U3.N5297995)     .3554             (X_U3.N5298043)     .0674                 

(X_U3.N5298247)   13.7650             (X_U3.N5298259)     .0192                 

(X_U3.N5298335)    3.5000             (X_U3.N5298539)   25.6000                 

(X_U3.N5298547)     .1804             (X_U3.N5298565)     .1998                 

(X_U3.N5298577)     .0999             (X_U3.N5298735) 13.34E-06                 

(X_U3.N5298821)     .3545             (X_U3.N5298855)     .3545                 

(X_U3.N5298889)     .3545             (X_U3.N5298911)     .3554                 

(X_U3.N5298977)   21.6670             (X_U3.N5298999)   14.3700                 

(X_U3.N5299017)   19.9750             (X_U3.N5299035)   25.3710                 

(X_U3.N5299057)   25.6020             (X_U3.N5299111)   18.0410                 

(X_U3.N5299325)     .0999             (X_U3.N5299343)     .0999                 

(X_U3.N5300195)   25.3710             (X_U3.N5300247)     .0999                 

(X_U3.N5300373)   25.6790             (X_U3.N5300937)   -3.5000                 

(X_U3.N5301533)   55.5000             (X_U3.N5301537)     .3545                 

(X_U3.N5301543)  205.0000             (X_U3.N5301563) 4.018E-18                 

(X_U3.N5301567) 4.018E-18             (X_U3.N5301577) 4.018E-18                 

(X_U3.N5301581) 4.018E-18             (X_U3.N5301591) 4.018E-18                 

(X_U3.N5301595) 4.018E-18             (X_U3.N5302227) 4.018E-18                 

(X_U3.N5302261) 4.018E-18             (X_U3.N5302295) 4.018E-18                 

(X_U3.N5302333) 4.018E-18             (X_U3.N5302369) 4.018E-18                 

(X_U3.N5302405) 4.018E-18             (X_U3.N5302475) 4.018E-18                 

(X_U3.N5302495)  -55.5000             (X_U3.N5302499) -205.0000                 

(X_U3.N5302951)    5.0000             (X_U3.N5302991)   -5.0000                 

(X_U3.N5303741)    4.9650             (X_U3.N5303747)   -2.8946                 

(X_U3.N5303803)    3.6054             (X_U3.N5303823)    4.9650                 

(X_U3.N5304181)-3.256E-09             (X_U3.N5304195) 4.018E-18                 

(X_U3.N5304303)   -2.8946             (X_U3.N5304315)   -2.8946                 

(X_U3.N5304383)    3.6054             (X_U3.N5304405)    3.6054                 

(X_U3.N5304435)-3.257E-09             (X_U3.N5304593)   -4.9670                 

(X_U3.N5304615)   -4.9670             (X_U3.N5331892) 10.02E-09                 

(X_U3.N5331902) 40.58E-12             (X_U3.N5336063) 46.26E-09                 

(X_U3.N5354255)     .3545             (X_U3.N5356232) 817.0E-06                 

(X_U4.CL_CLAMP)    5.5839             (X_U4.N5296587) 344.7E-09                 

(X_U4.N5296597)    4.1750             (X_U4.N5296613) 142.7E-06                 

(X_U4.N5296623) 20.11E-09             (X_U4.N5296637)   -1.1950                 

(X_U4.N5296643)-60.54E-09             (X_U4.N5297649)     .1998                 

(X_U4.N5297653)     .1998             (X_U4.N5297689)     .1998                 

(X_U4.N5297697)     .1998             (X_U4.N5297811)    4.9670                 

(X_U4.N5297995)    5.5839             (X_U4.N5298043)     .1987                 

(X_U4.N5298247)   54.6440             (X_U4.N5298259)     .0900                 

(X_U4.N5298335)    3.5000             (X_U4.N5298539)  101.3300                 

(X_U4.N5298547)    1.0133             (X_U4.N5298565)    4.9670                 

(X_U4.N5298577)     .1998             (X_U4.N5298735)     .1144                 

(X_U4.N5298821)    8.8464             (X_U4.N5298855)    8.8464                 

(X_U4.N5298889)    8.8464             (X_U4.N5298911)    8.8680                 

(X_U4.N5298977)  101.7000             (X_U4.N5298999)   72.9090                 

(X_U4.N5299017)  101.3400             (X_U4.N5299035)  101.3400                 

(X_U4.N5299057)  101.3400             (X_U4.N5299111)  101.3300                 

(X_U4.N5299325)     .1998             (X_U4.N5299343)     .1998                 

(X_U4.N5300195)  101.3400             (X_U4.N5300247)     .1987                 

(X_U4.N5300373)  101.3300             (X_U4.N5300937)   -3.5000                 

(X_U4.N5301533)   55.5000             (X_U4.N5301537)    8.8465                 

(X_U4.N5301543)  205.0000             (X_U4.N5301563)     .0033                 

(X_U4.N5301567)     .0033             (X_U4.N5301577) 3.785E-18                 

(X_U4.N5301581) 3.785E-18             (X_U4.N5301591) 3.785E-18                 

(X_U4.N5301595) 3.785E-18             (X_U4.N5302227) 3.785E-18                 

(X_U4.N5302261) 3.785E-18             (X_U4.N5302295) 3.785E-18                 

(X_U4.N5302333) 3.785E-18             (X_U4.N5302369) 3.785E-18                 

(X_U4.N5302405) 3.785E-18             (X_U4.N5302475) 3.785E-18                 

(X_U4.N5302495)  -55.5000             (X_U4.N5302499) -205.0000                 

(X_U4.N5302951)    5.0000             (X_U4.N5302991)   -5.0000                 

(X_U4.N5303741)    4.9631             (X_U4.N5303747)    2.3340                 

(X_U4.N5303803)    8.8390             (X_U4.N5303823)    4.9631                 

(X_U4.N5304181)-6.526E-09             (X_U4.N5304195) 3.785E-18                 

(X_U4.N5304303)    2.3340             (X_U4.N5304315)    2.3340                 

(X_U4.N5304383)    8.8390             (X_U4.N5304405)    8.8340                 

(X_U4.N5304435)     .0050             (X_U4.N5304593)   -4.9670                 

(X_U4.N5304615)   -4.9670             (X_U4.N5331892) 20.09E-09                 

(X_U4.N5331902) 132.7E-12             (X_U4.N5336063) 151.3E-09                 

(X_U4.N5354255)    8.8455             (X_U4.N5356232)     .0204                 

(X_U3.N52998091)   25.6790            (X_U4.N52998091)  101.3300                

(X_U3.CLAW_CLAMP)     .3554           (X_U4.CLAW_CLAMP)    5.5839               

(X_U3.SW_OL_OPAx210) 4.018E-18        (X_U4.SW_OL_OPAx210) 3.785E-18        


**** Interrupt ****
