
**** 10/25/25 18:28:36 **** PSpice 23.1.0 (30 January 2024) *** ID# 0 ********

 ** Profile: "SCHEMATIC1-bias"  [ C:\Sebas\02-Facultad\PSpice\01 - Resistencia de Shunt\005_corrientes_sim\005_correines_sim-pspicefi


 ****     CIRCUIT DESCRIPTION


******************************************************************************




** Creating circuit file "bias.cir" 
** WARNING: THIS AUTOMATICALLY GENERATED FILE MAY BE OVERWRITTEN BY SUBSEQUENT SIMULATIONS

*Libraries: 
* Profile Libraries :
* Local Libraries :
* From [PSPICE NETLIST] section of C:\cds_spb_home\cdssetup\OrCAD_PSpiceTIPSpice_Install\23.1.0\PSpice.ini file:
.lib "C:\Users\sebas\OneDrive - alum.uca.es\B - Spice Models\Transistor\BSS138P.lib" 
.lib "C:\Users\sebas\OneDrive - alum.uca.es\B - Spice Models\Transistor\DMG2302.lib" 
.lib "C:\Users\sebas\OneDrive - alum.uca.es\B - Spice Models\Transistor\2N7000.onsemi.lib" 
.lib "C:\Users\sebas\OneDrive - alum.uca.es\B - Spice Models\Transistor\2N7000.nxp.lib" 
.lib "nom_pspti.lib" 
.lib "nom.lib" 
.inc "C:\Users\sebas\OneDrive - alum.uca.es\04 - Proyectos\01 - [GOAL] TFG\Documentación\include.txt" 

*Analysis directives: 

**** INCLUDING include.txt ****
+ .options PTRANABSTOL=10u PTRANVNTOL=100u 

**** RESUMING bias.cir ****
.TRAN  0 1s 0 100us SKIPBP 
.OPTIONS ADVCONV
.OPTIONS FILEMODELSEARCH
.OPTIONS ABSTOL= 1.0n
.OPTIONS RELTOL= 2m
.OPTIONS VNTOL= 1m
.AUTOCONVERGE ITL1=1000 ITL2=1000 ITL4=1000 RELTOL=0.05 ABSTOL=1.0E-6 VNTOL=.001 PIVTOL=1.0E-10 
.PROBE64 V(alias(*)) I(alias(*)) W(alias(*)) D(alias(*)) NOISE(alias(*)) 
.INC "..\SCHEMATIC1.net" 



**** INCLUDING SCHEMATIC1.net ****
* source 005_CORREINES_SIM
V_V5         N19820 0 60.559u
V_V3         0 10VEE 10Vdc
R_RL         0 N19840  10Meg TC=0,0 
V_V2         10VCC 0 10Vdc
R_R3         N19840 N19826  1k TC=0,0 
R_RShunt         N20134 N19926  0.01 TC=0,0 
R_R1         N20138 N20040  60.6 TC=0,0 
X_U2         N20098 N19826 5VCC 5VEE N19840 OPAx210
R_R4         N19826 N19820  1.5k TC=0,0 
V_V4         N20144 0 -1.01m
X_U1         N19926 N20134 10VCC 10VEE N20098 N20144 N20040 N20138 INA849
V_V7         0 5VEE 5Vdc
R_R2         0 N20134  1.67 TC=0,0 
V_V6         5VCC 0 5Vdc
V_V1         N19926 0 5Vdc

**** RESUMING bias.cir ****
.END

WARNING(ORPSIM-15223): Library file C:\cds_spb_home\cdssetup\pspTILibDir\nom_pspti.lib has changed since index file nom_pspti.ind was created.

WARNING(ORPSIM-15227): The timestamp changed from Thu Jul 24 09:06:03 2025 to Wed Oct  8 10:57:04 2025.

INFO(ORPSIM-15422): Making new index file nom_pspti.ind for library file nom_pspti.lib.
b2e4e117ac3ae9d81b0a9590344b9f0be3a13d734fc0d5d3bc0ae1622ce0f1f9be7002c9257815a723e6968b7ce9d1912158f221a9c6c7f774db6896643a33b0
$CDNENCFINISH_ADV2
.ENDS
*$
.SUBCKT VC_RES1_68k     1 2     4 5
$CDNENCSTART_ADV2
17f62b1fb318c25603aeb85644ae98a5d179ef807807791f6459efacb9d7ffc37a831b146dc0f06bb1ef275619162e6d8f7ad0dc708bf15ae1a1d5bd0ae623b2
4338d7c6b789b936510049641c41694601a828b94bca95e37d9595892e84fe4adde61b3186a8a4ced614ffd7534112da752ebe196261f5fadbdc1df943f8b053
b2e4e117ac3ae9d81b0a9590344b9f0be3a13d734fc0d5d3bc0ae1622ce0f1f9be7002c9257815a723e6968b7ce9d1912158f221a9c6c7f774db6896643a33b0
$CDNENCFINISH_ADV2
.ENDS
*$
.model Mbreakp PMOS_SIMPLE 
$CDNENCSTART_ADV2
17f62b1fb318c25603aeb85644ae98a5d179ef807807791f6459efacb9d7ffc37a831b146dc0f06bb1ef275619162e6d8f7ad0dc708bf15ae1a1d5bd0ae623b2
d0a62a7eecff332c2c1a7f28e691e8355b0d507d4d4167bdded4599b6b3f07ed49ca0bf013e9ee48384f4a7c200902eb9bd5e11d04cca5bd57a5eb5ba1dfe8a6
$CDNENCFINISH_ADV2
*$

WARNING(ORPSIM-15195): Model type unknown

Index has 124299 entries from 5504 file(s).

**** 10/25/25 18:28:36 **** PSpice 23.1.0 (30 January 2024) *** ID# 0 ********

 ** Profile: "SCHEMATIC1-bias"  [ C:\Sebas\02-Facultad\PSpice\01 - Resistencia de Shunt\005_corrientes_sim\005_correines_sim-pspicefi


 ****     Diode MODEL PARAMETERS


******************************************************************************




               X_U2.X_U39.DVNF X_U2.X_U40.DVNF X_U2.X_U43.DVN  X_U1.X_U1.DVN   
          IS  100.000000E-18  100.000000E-18  100.000000E-18  100.000000E-18 
          KF    3.162278E-12    3.162278E-12    3.162278E-12    3.162278E-12 


               X_U1.X_U16.DVN  X_U1.X_U7.DVNF  X_U1.X_U8.DVNF  
          IS  100.000000E-18  100.000000E-18  100.000000E-18 
          KF    3.162278E-12    3.162278E-12    3.162278E-12 


               X_U1.X_INA849_OUTAMP.X_U1.DVN 
          IS  100.000000E-18 
          KF    3.872984E-12 


**** 10/25/25 18:28:36 **** PSpice 23.1.0 (30 January 2024) *** ID# 0 ********

 ** Profile: "SCHEMATIC1-bias"  [ C:\Sebas\02-Facultad\PSpice\01 - Resistencia de Shunt\005_corrientes_sim\005_correines_sim-pspicefi


 ****     Resistor MODEL PARAMETERS


******************************************************************************




               X_U2.R_NOISELESS 
  T_Measured   27            
   T_Current -273.15         
           R    1            


               X_U1.R_NOISELESS 
  T_Measured   27            
   T_Current -273.15         
           R    1            


               X_U1.X_INA849_INAMP0.R_NOISELESS 
  T_Measured   27            
   T_Current -273.15         
           R    1            


               X_U1.X_INA849_INAMP1.R_NOISELESS 
  T_Measured   27            
   T_Current -273.15         
           R    1            


               X_U1.X_INA849_OUTAMP.R_NOISELESS 
  T_Measured   27            
   T_Current -273.15         
           R    1            


**** 10/25/25 18:28:36 **** PSpice 23.1.0 (30 January 2024) *** ID# 0 ********

 ** Profile: "SCHEMATIC1-bias"  [ C:\Sebas\02-Facultad\PSpice\01 - Resistencia de Shunt\005_corrientes_sim\005_correines_sim-pspicefi


 ****     Voltage Controlled Switch MODEL PARAMETERS


******************************************************************************




               X_U2.X_S1._S1   X_U2.X_S2._S2   
         RON     .01             .01         
        ROFF    1.000000E+12    1.000000E+12 
         VON     .01             .01         
        VOFF    0               0            


               X_U2.X_U20.ESD_SW 
         RON   50            
        ROFF    1.000000E+12 
         VON     .7          
        VOFF     .65         


               X_U2.X_U21.ESD_SW 
         RON   50            
        ROFF    1.000000E+12 
         VON     .5          
        VOFF     .45         


               X_U2.X_U25.OL_SW 
         RON    1.000000E-03 
        ROFF    1.000000E+09 
         VON     .9          
        VOFF     .8          


               X_U2.X_U5.ESD_SW 
         RON   50            
        ROFF    1.000000E+12 
         VON     .5          
        VOFF     .45         


               X_U1.X_U12.ESD_SW 
         RON   50            
        ROFF    1.000000E+12 
         VON     .5          
        VOFF     .1          


               X_U1.X_U13.ESD_SW 
         RON   50            
        ROFF    1.000000E+12 
         VON     .5          
        VOFF     .1          


               X_U1.X_U14.ESD_SW 
         RON   50            
        ROFF    1.000000E+12 
         VON     .5          
        VOFF     .1          


               X_U1.X_U15.ESD_SW 
         RON   50            
        ROFF    1.000000E+12 
         VON     .5          
        VOFF     .1          


               X_U1.X_U3.ESD_SW 
         RON   50            
        ROFF    1.000000E+12 
         VON     .5          
        VOFF     .1          


               X_U1.X_U4.ESD_SW 
         RON   50            
        ROFF    1.000000E+12 
         VON     .5          
        VOFF     .1          


               X_U1.X_INA849_OUTAMP.X_U20.ESD_SW 
         RON   50            
        ROFF    1.000000E+12 
         VON     .5          
        VOFF     .1          



          JOB CONCLUDED
 AutoConverge Simulator Options
 ITL1 = 150
 ITL2 = 20
 ITL4 = 10
 RELTOL = 0.002
 ABSTOL = 1e-09
 VNTOL = 0.001
 PIVTOL = 1e-13

**** 10/25/25 18:28:36 **** PSpice 23.1.0 (30 January 2024) *** ID# 0 ********

 ** Profile: "SCHEMATIC1-bias"  [ C:\Sebas\02-Facultad\PSpice\01 - Resistencia de Shunt\005_corrientes_sim\005_correines_sim-pspicefi


 ****     JOB STATISTICS SUMMARY


******************************************************************************



  Total job time (using Solver 1)   =       55.19
